[General]
network = Simple
debug-on-errors = true
load-libs = 
sim-time-limit = 15min

**.radioMedium.rangeFilter = "communicationRange"

# Disable unnecessary statistics
**.receptionState.statistic-recording = false
**.radioMode.statistic-recording = false
**.transmissionState.statistic-recording = false
**.lo0.**.statistic-recording = false

**.nic.**.statistic-recording = false
#**.packetErrorRate.statistic-recording = true
#**.minSNIR.statistic-recording = true
**.nic.mac.scalar-recording = true

*.nodeCounter.statistic-recording = true
**.powerConsumption.statistic-recording = true
**.residualCapacity.statistic-recording = true

**.numSensors = ${10, 50, 100, 200}
**.app.protocol = 59
**.app.packetLength = ${5, 15, 50, 100}B
**.networkLayerType = "FloodNetworkLayer"
**.app.destAddresses = ""
**.sink.protocol = 59
**.radio.displayCommunicationRange = true
**.app.sendInterval = ${100, 250, 500, 1000}ms

**.sensor[*].energyStorage.nominalCapacity = 9360*0.001J
**.sink.energyStorage.nominalCapacity = 4 * 9360 * 0.001J
**.energyStorage.nodeShutdownCapacity = 9360 * 0.1 * 0.001J
**.energyStorage.nodeStartCapacity = 9360 * 0.2 * 0.001J

[Config Flood]
**.networkLayerType = "FloodNetworkLayer"

[Config SPIN]
**.networkLayerType = "SPINLayer"

[Config LEACH]
**.networkLayerType = "LEACHLayer"
**.broadcastSinkAddress = false
**.sink.nic.mac.address = "FF-FF-FF-FF-FF-FE"
**.app.destAddresses = "FF-FF-FF-FF-FF-FE"
**.np.sinkAddr = "FF-FF-FF-FF-FF-FE"
**.np.percentage = 0.2
**.np.roundLength = 5s
**.np.slotLength = 0.1

[Config ALEACH]
extends = LEACH
**.networkLayerType = "ALEACHLayer"

[Config LEACH_DCHS]
extends = LEACH
**.networkLayerType = "LEACH_DCHS_Layer"

[Config Grid]
network = Grid
*.sensor[*].mobilityType = "StaticGridMobility"
*.sensor[*].mobility.initFromDisplayString = false
*.sensor[*].mobility.marginX = 6m
*.sensor[*].mobility.marginY = 6m
*.sensor[*].mobility.initialZ = 0m
*.sensor[*].mobility.constraintAreaMinX = 200m
*.sensor[*].mobility.constraintAreaMinY = 200m
*.sensor[*].mobility.constraintAreaMinZ = -1m/0
*.sensor[*].mobility.constraintAreaMaxX = 1000m
*.sensor[*].mobility.constraintAreaMaxY = 1000m
*.sensor[*].mobility.constraintAreaMaxZ = 1m/0

[Config Normal_Distribution]
**.physicalEnvironment.groundType = "FlatGround"
**.mobility.initFromDisplayString = false
**.mobility.initialX = truncnormal(400m, 100m)
**.mobility.initialY = truncnormal(300m, 100m)
**.mobility.initialZ = 0m

[Config Uniform_Distribution]
**.physicalEnvironment.groundType = "FlatGround"
**.mobility.initFromDisplayString = false
**.mobility.initialX = uniform(200m, 650m)
**.mobility.initialY = uniform(50m, 600m)
**.mobility.initialZ = 0m

[Config Flood_Grid]
extends = Flood, Grid

[Config SPIN_Grid]
extends = SPIN, Grid

[Config LEACH_Grid]
extends = LEACH, Grid

[Config ALEACH_Grid]
extends = ALEACH, Grid

[Config LEACH_DCHS_Grid]
extends = LEACH_DCHS, Grid

[Config Flood_Normal_Distribution]
extends = Flood, Normal_Distribution

[Config SPIN_Normal_Distribution]
extends = SPIN, Normal_Distribution

[Config LEACH_Normal_Distribution]
extends = LEACH, Normal_Distribution

[Config ALEACH_Normal_Distribution]
extends = ALEACH, Normal_Distribution

[Config LEACH_DCHS_Normal_Distribution]
extends = LEACH_DCHS, Normal_Distribution

